!!>>>>>>>>>>>>>>>>>>>>>>>>>>>>>>>>>>>>>>>>>>>>>>>>>>>>>>>>>>>>>>>>>>>>>>
!! NEMO/OCE  Configuration namelist : overwrite default values defined in SHARED/namelist_ref
!!>>>>>>>>>>>>>>>>>>>>>>>>>>>>>>>>>>>>>>>>>>>>>>>>>>>>>>>>>>>>>>>>>>>>>>
!!    HUDSON12 coupled to OCE of NEMO (1/12th of a degree)             !!
!!======================================================================
!
!-----------------------------------------------------------------------
&namrun        !   parameters of the run
!-----------------------------------------------------------------------
   cn_exp      =  'HUDSON12-CPL00' !  experience name
   nn_it000    =    1   !  first time step
   nn_itend    =    1800   !  last  time step (std 5840)
   nn_date0    =    19970101   !  date at nit_0000 (format yyyymmdd) used if ln_rstart=F or (ln_rstart=T and nn_rstctl=0 or 1)
   nn_leapy    =       1   !  Leap year calendar (1) or not (0)
   ln_rstart   =  .false.   !  start from rest (F) or from a restart file (T)
      nn_rstctl   = 2      !  restart control ==> activated only if ln_rstart=T
      !                          !    = 0 nn_date0 read in namelist ; nn_it000 : read in namelist
      !                          !    = 1 nn_date0 read in namelist ; nn_it000 : check consistancy between namelist and restart
      !                          !    = 2 nn_date0 read in restart  ; nn_it000 : check consistancy between namelist and restart
   nn_istate   =       0   !  output the initial state (1) or not (0)
   ln_rst_list = .false.   !  output restarts at list of times using nn_stocklist (T) or at set frequency with nn_stock (F)
   nn_stock    = 1800  !  frequency of creation of a restart file (modulo referenced to 1)
   nn_write    = 1800   !  frequency of write in the output file   (modulo referenced to nn_it000)
   ln_mskland  = .false.   !  mask land points in NetCDF outputs
   ln_clobber  = .true.    !  clobber (overwrite) an existing file
/
!-----------------------------------------------------------------------
&namdom        !   time and space domain
!-----------------------------------------------------------------------
   rn_Dt      = 240.      !  time step for the dynamics and tracer
   ln_meshmask = .false.   !  =T create a mesh file
/
!-----------------------------------------------------------------------
&namcfg        !   parameters of the configuration                      (default: use namusr_def in namelist_cfg)
!-----------------------------------------------------------------------
   ln_read_cfg = .true.    !  (=T) read the domain configuration file
      cn_domcfg = 'domain_cfg_HUDSON12'  ! domain configuration filename
/
!!
!!
!!======================================================================
!!  ***  Ocean Surface State namelists  ***   !!
!!                                                                    !!
!!   namoss          Ocean Surface State manager   (default: NO selection)
!!   !!!namoss_cpl      CouPLed            formulation                     ("key_oasis3" )
!!   namoss_ssx      prescribed surface state of the ocean when no coupling
!!======================================================================
!
!-----------------------------------------------------------------------
&namoss        !   Surface Ocean State & Ice-Ocean interface manager                   (default: NO selection)
!-----------------------------------------------------------------------
   rn_Cd_io      = 5.e-03  !  ice-ocean drag coefficient (-)
   ln_drgice_imp = .false. !  implicit ice-ocean drag !lolo:coupled
      !
   nn_foss     = 1         !  frequency of OSS module call
      !                    !  (control sea-ice & iceberg model call)
      !              ! Type of coupling (Ice/Ocean) :
   ln_prs_oce  = .false.   !  uses a prescribed surface state of the ocean => standalone mode
   ln_cpl_oce  = .true.    !  ocean coupled   formulation          ( requires key_oasis3 )
      !
   ln_ice_embd = .false.   !  =T embedded sea-ice (pressure + mass and salt exchanges)
      !                    !  =F levitating ice (no pressure, mass and salt exchanges)
/
!!
!-----------------------------------------------------------------------
&namoss_ssx    !   Surface ocean state (`ln_prs_oce=T` => prescibed sate | `ln_cpl_oce=T`=>initial state)
!-----------------------------------------------------------------------
   ln_ssxread   = .true.      !  =T Read in file ;  =F set all to 0. (see ossssm)
      ln_3d_uve   = .false.   !  specify whether we are supplying a 3D u,v and e3 field
      ln_read_e3t = .true.    !  specify whether we must read `e3t`
      ln_read_frq = .true.    !  specify whether we must read `frq`
   !
   cn_dir      = './'      !  root directory for the ocean data location
   !___________!_____________!_________________!___________!_____________!________!___________!__________________!__________!_______________!
   !        !  file name     !frequency (hours)! variable  ! time interp.!  clim  ! 'yearly'/ ! weights filename ! rotation ! land/sea mask !
   !        !                !  (if <0  months)!   name    !   (logical) !  (T/F) ! 'monthly' !                  ! pairing  !    filename   !
   sn_usp = 'CPL_init_HUDSON12_gridU', 6.      , 'uos'     ,   .false.   , .true. , 'yearly'  ,    ''            ,    ''    ,    ''
   sn_vsp = 'CPL_init_HUDSON12_gridV', 6.      , 'vos'     ,   .false.   , .true. , 'yearly'  ,    ''            ,    ''    ,    ''
   sn_tem = 'CPL_init_HUDSON12_gridT', 6.      , 'sosstsst',   .false.   , .true. , 'yearly'  ,    ''            ,    ''    ,    ''
   sn_sal = 'CPL_init_HUDSON12_gridT', 6.      , 'sosaline',   .false.   , .true. , 'yearly'  ,    ''            ,    ''    ,    ''
   sn_ssh = 'CPL_init_HUDSON12_gridT', 6.      , 'sossheig',   .false.   , .true. , 'yearly'  ,    ''            ,    ''    ,    ''
   sn_mld = 'NOT USED'              ,  6.      , 'mld_m'   ,   .false.   , .true. , 'yearly'  ,    ''            ,    ''    ,    ''
   sn_e3t = 'CPL_init_HUDSON12_gridT', 6.      , 'e3t_m'   ,   .false.   , .true. , 'yearly'  ,    ''            ,    ''    ,    ''
   sn_frq = 'CPL_init_HUDSON12_gridT', 6.      , 'frq_m'   ,   .false.   , .true. , 'yearly'  ,    ''            ,    ''    ,    ''
/
!!
!!
!!======================================================================
!!  ***  Surface Boundary Conditions (ice & ocean) namelists  ***     !!
!!                                                                    !!
!!   namsbc          surface boundary condition (ice & ocean) manager   (default: NO selection)
!!   namsbc_flx      flux               formulation                     (ln_flx     =T)
!!   namsbc_blk      Bulk formulae formulation                          (ln_blk     =T)
!!   namsbc_cpl      CouPLed            formulation                     ("key_oasis3" )
!!======================================================================
!
!-----------------------------------------------------------------------
&namsbc        !   Surface Boundary Condition manager                   (default: NO selection)
!-----------------------------------------------------------------------
   nn_fsbc     = 1         !  frequency of SBC module call
   ln_blk      = .true.    !  Bulk formulation                          (T => fill namsbc_blk )
/
!-----------------------------------------------------------------------
&namsbc_blk    !   namsbc_blk  generic Bulk formula          (ln_blk =T)
!-----------------------------------------------------------------------
   !                    !  bulk algorithm :
   ln_NCAR      = .false.    ! "NCAR"      algorithm   (Large and Yeager 2008)
   ln_COARE_3p0 = .false.    ! "COARE 3.0" algorithm   (Fairall et al. 2003)
   ln_ECMWF     = .true.     ! "ECMWF"     algorithm   (IFS cycle 45r1)
      rn_zqt       =  2.     !  Air temperature & humidity reference height (m)
      rn_zu        = 10.     !  Wind vector reference height (m)
      nn_iter_algo = 5       !  Number of iterations in bulk param. algo ("stable ABL + weak wind" requires more)
      ln_skin_cs   = .false. !  use the cool-skin parameterization  => use at least nn_iter_algo > 10
      ln_skin_wl   = .false. !  use the warm-layer parameterization => use at least nn_iter_algo > 10
   !
   ln_humi_sph = .false. !  humidity "sn_humi" is specific humidity  [kg/kg]
   ln_humi_dpt = .true.  !  humidity "sn_humi" is dew-point temperature [K]
   ln_humi_rlh = .false. !  humidity "sn_humi" is relative humidity     [%]
   ln_tair_pot = .false. !  air temperature read in "sn_tair" is already POTENTIAL TEMPERATURE, NOT ABSOLUTE (ECMWF => ln_tair_pot=.false.)
   !!
   !! Bulk transfer coefficients over sea-ice:
   ln_Cx_ice_cst = .true.     ! use constant ice-air bulk transfer coefficients (value given below)
      rn_Cd_i  = 1.6e-3       ! sea-ice drag coefficient
      rn_Ce_i  = 1.4e-3       !    "    sublimation coefficient
      rn_Ch_i  = 1.4e-3       !    "    sensible heat flux coefficient
   ln_Cx_ice_AN05  = .false.  !  (Andreas et al. 2005)
   ln_Cx_ice_LU12  = .false.  !  (Lupkes et al. 2012)
   ln_Cx_ice_LG15  = .false.  !  (Lupkes & Gryanik 2015)
   !
   cn_dir      = './' !  root directory for the bulk data location
   !___________!____________!___________!__________!_____________!________!___________!_____________________________________________________________!__________!_______________!
   !           !  file name ! freq. (h) ! variable ! time interp.!  clim  ! 'yearly'/ !       weights filename                                      ! rotation ! land/sea mask !
   !           !            !           !   name   !   (logical) !  (T/F) ! 'monthly' !                  ! pairing  !    filename   !
   sn_wndi = 'u10_ERA5-HUDSON12'     , 1., 'u10'     ,    .true.   , .false. , 'yearly' , ''  ,''       , ''
   sn_wndj = 'v10_ERA5-HUDSON12'     , 1., 'v10'     ,    .true.   , .false. , 'yearly' , ''  ,''       , ''
   sn_qsr  = 'msdwswrf_ERA5-HUDSON12', 1., 'msdwswrf',    .false.  , .false. , 'yearly' , '' , ''       , ''
   sn_qlw  = 'msdwlwrf_ERA5-HUDSON12', 1., 'msdwlwrf',    .false.  , .false. , 'yearly' , '' , ''       , ''
   sn_tair = 't2m_ERA5-HUDSON12'     , 1., 't2m'     ,    .true.   , .false. , 'yearly' , '' , ''       , ''
   sn_humi = 'd2m_ERA5-HUDSON12'     , 1., 'd2m'     ,    .true.   , .false. , 'yearly' , '' , ''       , ''
   sn_prec = 'mtpr_ERA5-HUDSON12'    , 1., 'mtpr'    ,    .false.  , .false. , 'yearly' , '' , ''       , ''
   sn_snow = 'msr_ERA5-HUDSON12'     , 1., 'msr'     ,    .false.  , .false. , 'yearly' , '' , ''       , ''
   sn_slp  = 'msl_ERA5-HUDSON12'     , 1., 'msl'     ,    .true.   , .false. , 'yearly' , '' , ''       , ''
/
!!
!!======================================================================
!!               ***  Lateral boundary condition  ***                 !!
!!                                                                    !!
!!   nambdy        Unstructured open boundaries                         (default: OFF)
!!   nambdy_dta    Unstructured open boundaries - external data         (see  nambdy)
!!======================================================================
!
!-----------------------------------------------------------------------
&nambdy        !  unstructured open boundaries                          (default: OFF)
!-----------------------------------------------------------------------
   ln_bdy         = .false.    !  Use unstructured open boundaries
/
!!-----------------------------------------------------------------------
&nameos        !   ocean Equation Of Seawater                           (default: NO selection)
!-----------------------------------------------------------------------
/
!
!-----------------------------------------------------------------------
&nammpp        !   Massively Parallel Processing
!-----------------------------------------------------------------------
   ln_listonly =  .false.  !  do nothing else than listing the best domain decompositions (with land domains suppression)
   !                       !  if T: the largest number of cores tested is defined by max(mppsize, jpni*jpnj)
   ln_nnogather =  .false.
!!   jpni        =   2       !  number of processors following i (set automatically if < 1), see also ln_listonly = T
!!   jpnj        =   2       !  number of processors following j (set automatically if < 1), see also ln_listonly = T
   nn_hls      =   3         !  halo width (applies to both rows and columns)
   nn_comm     =   1         !  comm choice
/
!-----------------------------------------------------------------------
&namctl        !   Control prints                                       (default: OFF)
!-----------------------------------------------------------------------
   ln_timing   = .true.          !  timing by routine write out in timing.output file
/
