!!>>>>>>>>>>>>>>>>>>>>>>>>>>>>>>>>>>>>>>>>>>>>>>>>>>>>>>>>>>>>>>>>>>>>>>
!! NEMO/OCE  Configuration namelist : overwrite default values defined in SHARED/namelist_ref
!!>>>>>>>>>>>>>>>>>>>>>>>>>>>>>>>>>>>>>>>>>>>>>>>>>>>>>>>>>>>>>>>>>>>>>>
!!    CYCLONE (<RESKM>!) configuration                  !!
!!======================================================================
!
!-----------------------------------------------------------------------
&namrun        !   parameters of the run
!-----------------------------------------------------------------------
   cn_exp      =  'CYCLONE_<RESKM>' !  experience name
   nn_it000    =    1   !  first time step
   nn_itend    =    <NTS>   !  last  time step (std 5840)
   nn_date0    =    20100101   !  date at nit_0000 (format yyyymmdd) used if ln_rstart=F or (ln_rstart=T and nn_rstctl=0 or 1)
   nn_leapy    =       1   !  Leap year calendar (1) or not (0)
   ln_rstart   =  .false.   !  start from rest (F) or from a restart file (T)
      nn_rstctl   = 2      !  restart control ==> activated only if ln_rstart=T
      !                          !    = 0 nn_date0 read in namelist ; nn_it000 : read in namelist
      !                          !    = 1 nn_date0 read in namelist ; nn_it000 : check consistancy between namelist and restart
      !                          !    = 2 nn_date0 read in restart  ; nn_it000 : check consistancy between namelist and restart
   nn_istate   =       0   !  output the initial state (1) or not (0)
   ln_rst_list = .false.   !  output restarts at list of times using nn_stocklist (T) or at set frequency with nn_stock (F)
   nn_stock    = <NTS>  !  frequency of creation of a restart file (modulo referenced to 1)
   nn_write    = <NTS>   !  frequency of write in the output file   (modulo referenced to nn_it000)
   ln_mskland  = .false.   !  mask land points in NetCDF outputs
   ln_clobber  = .true.    !  clobber (overwrite) an existing file
/
!-----------------------------------------------------------------------
&namdom        !   time and space domain
!-----------------------------------------------------------------------
   rn_Dt      = <DT>.      !  time step for the dynamics and tracer
   ln_meshmask = .false.   !  =T create a mesh file
/
!-----------------------------------------------------------------------
&namcfg        !   parameters of the configuration                      (default: use namusr_def in namelist_cfg)
!-----------------------------------------------------------------------
   ln_read_cfg = .true.    !  (=T) read the domain configuration file
      cn_domcfg = 'domain_cfg_CYCLONE_<RESKM>'  ! domain configuration filename
/
!!
!!
!!======================================================================
!!  ***  Ocean Surface State namelists  ***   !!
!!                                                                    !!
!!   namoss          Ocean Surface State manager   (default: NO selection)
!!   !!!namoss_cpl      CouPLed            formulation                     ("key_oasis3" )
!!   namoss_ssx      prescribed surface state of the ocean when no coupling
!!======================================================================
!
!-----------------------------------------------------------------------
&namoss        !   Surface Ocean State & Ice-Ocean interface manager                   (default: NO selection)
!-----------------------------------------------------------------------
   rn_Cd_io      = 5.2e-03 !  ice-ocean drag coefficient (-)
   ln_drgice_imp = .true.  !  implicit ice-ocean drag
      !
   nn_foss     = 1         !  frequency of OSS module call
      !                    !  (control sea-ice & iceberg model call)
      !              ! Type of coupling (Ice/Ocean) :
   ln_cpl_oce  = .false.   !  ocean coupled   formulation          ( requires key_oasis3 )
   !!
/
!!
!-----------------------------------------------------------------------
&namoss_ssx    !   Surface ocean state (when coupled=>init and not coupled =>prescibed) 
!-----------------------------------------------------------------------
   ln_ssxread   = .true.    !  =T Read in file ;  =F set all to 0. (see ossssm)
      ln_3d_uve   = .false.   !  specify whether we are supplying a 3D u,v and e3 field
      ln_read_frq = .false.   !  specify whether we must read frq or not
   !
   cn_dir      = './'      !  root directory for the ocean data location
   !___________!_________________________!___________________!___________!_____________!________!___________!__________________!__________!_______________!
   !           !  file name              ! frequency (hours) ! variable  ! time interp.!  clim  ! 'yearly'/ ! weights filename ! rotation ! land/sea mask !
   !           !                         !  (if <0  months)  !   name    !   (logical) !  (T/F) ! 'monthly' !                  ! pairing  !    filename   !
   sn_usp      = 'ssx_CYCLONE_<RESKM>'  ,         -1.       , 'uos'     ,   .true.    , .true.,  'yearly'  ,    ''            ,    ''    ,    ''
   sn_vsp      = 'ssx_CYCLONE_<RESKM>'  ,         -1.       , 'vos'     ,   .true.    , .true.,  'yearly'  ,    ''            ,    ''    ,    ''
   sn_tem      = 'ssx_CYCLONE_<RESKM>'  ,         -1.       , 'tos'     ,   .true.    , .true.,  'yearly'  ,    ''            ,    ''    ,    ''
   sn_sal      = 'ssx_CYCLONE_<RESKM>'  ,         -1.       , 'sos'     ,   .true.    , .true.,  'yearly'  ,    ''            ,    ''    ,    ''
   sn_ssh      = 'ssx_CYCLONE_<RESKM>'  ,         -1.       , 'zos'     ,   .true.    , .true.,  'yearly'  ,    ''            ,    ''    ,    ''
   sn_e3t      = 'ssx_CYCLONE_<RESKM>'  ,         -1.       , 'e3t_m'   ,   .true.    , .true.,  'yearly'  ,    ''            ,    ''    ,    ''
   sn_frq      = 'ssx_CYCLONE_<RESKM>'  ,         -1.       , 'frq_m'   ,   .true.    , .true.,  'yearly'  ,    ''            ,    ''    ,    ''
/
!!
!!
!!======================================================================
!!            ***  Surface Boundary Condition namelists  ***          !!
!!                                                                    !!
!!   namsbc          surface boundary condition (ice & ocean) manager   (default: NO selection)
!!   namsbc_flx      flux               formulation                     (ln_flx     =T)
!!   namsbc_blk      Bulk formulae formulation                          (ln_blk     =T)
!!   namsbc_cpl      CouPLed            formulation                     ("key_oasis3" )
!!======================================================================
!
!-----------------------------------------------------------------------
&namsbc        !   Surface Boundary Condition manager                   (default: NO selection)
!-----------------------------------------------------------------------
   nn_fsbc     = 1         !  frequency of SBC module call
   ln_blk      = .true.    !  Bulk formulation                          (T => fill namsbc_blk )
/
!-----------------------------------------------------------------------
&namsbc_blk    !   namsbc_blk  generic Bulk formula          (ln_blk =T)
!-----------------------------------------------------------------------
   !                    !  bulk algorithm :
   ln_NCAR      = .false.     ! "NCAR"      algorithm   (Large and Yeager 2008)
   ln_COARE_3p0 = .false.    ! "COARE 3.0" algorithm   (Fairall et al. 2003)
   ln_COARE_3p6 = .false.    ! "COARE 3.6" algorithm   (Edson et al. 2013)
   ln_ECMWF     = .true.     ! "ECMWF"     algorithm   (IFS cycle 45r1)
      rn_zqt       = 10.     !  Air temperature & humidity reference height (m)
      rn_zu        = 10.     !  Wind vector reference height (m)
      nn_iter_algo = 5       !  Number of iterations in bulk param. algo ("stable ABL + weak wind" requires more)
      ln_skin_cs   = .false. !  use the cool-skin parameterization  => use at least nn_iter_algo > 10
      ln_skin_wl   = .false. !  use the warm-layer parameterization => use at least nn_iter_algo > 10
   !
   ln_humi_sph = .true.  !  humidity "sn_humi" is specific humidity  [kg/kg]
   ln_humi_dpt = .false. !  humidity "sn_humi" is dew-point temperature [K]
   ln_humi_rlh = .false. !  humidity "sn_humi" is relative humidity     [%]
   ln_tair_pot = .false. !  air temperature read in "sn_tair" is already POTENTIAL TEMPERATURE, NOT ABSOLUTE (ECMWF => ln_tair_pot=.false.)
   !!
   !! Bulk transfer coefficients over sea-ice:
   ln_Cx_ice_cst = .true.     ! use constant ice-air bulk transfer coefficients (value given below)
      rn_Cd_i  = 1.2e-3 !#CYCLONE      ! sea-ice drag coefficient
      rn_Ce_i  = 1.4e-3       !    "    sublimation coefficient
      rn_Ch_i  = 1.4e-3       !    "    sensible heat flux coefficient
   ln_Cx_ice_AN05  = .false.  !  (Andreas et al. 2005)
   ln_Cx_ice_LU12  = .false.  !  (Lupkes et al. 2012)
   ln_Cx_ice_LG15  = .false.  !  (Lupkes & Gryanik 2015)
   !
   cn_dir      = './' !  root directory for the bulk data location
   !___________!____________!___________!__________!_____________!________!___________!_____________________________________________________________!__________!_______________!
   !           !  file name ! freq. (h) ! variable ! time interp.!  clim  ! 'yearly'/ !       weights filename                                      ! rotation ! land/sea mask !
   !           !            !           !   name   !   (logical) !  (T/F) ! 'monthly' !                                                             ! pairing  !    filename   !
   sn_wndi = 'FATM_10m_CYCLONE_<RESKM>', -1.,  'u10m'   ,.true. , .true.  , 'yearly' , ''  ,''       , ''
   sn_wndj = 'FATM_10m_CYCLONE_<RESKM>', -1.,  'v10m'   ,.true. , .true.  , 'yearly' , ''  ,''       , ''
   sn_qsr  = 'FATM_10m_CYCLONE_<RESKM>', -1.,  'qdsw'   ,.false., .true.  , 'yearly' , '' , ''       , ''
   sn_qlw  = 'FATM_10m_CYCLONE_<RESKM>', -1.,  'qdlw'   ,.false., .true.  , 'yearly' , '' , ''       , ''
   sn_tair = 'FATM_10m_CYCLONE_<RESKM>', -1.,  't10m'   ,.true. , .true.  , 'yearly' , '' , ''       , ''
   sn_humi = 'FATM_10m_CYCLONE_<RESKM>', -1.,  'q10m'   ,.true. , .true.  , 'yearly' , '' , ''       , ''
   sn_prec = 'FATM_10m_CYCLONE_<RESKM>', -1.,  'fwtp'   ,.false., .true.  , 'yearly' , '' , ''       , ''
   sn_snow = 'FATM_10m_CYCLONE_<RESKM>', -1.,  'fwsp'   ,.false., .true.  , 'yearly' , '' , ''       , ''
   sn_slp  = 'FATM_10m_CYCLONE_<RESKM>', -1.,  'mslp'   ,.true. , .true.  , 'yearly' , '' , ''       , ''
/
!!
!!======================================================================
!!               ***  Lateral boundary condition  ***                 !!
!!                                                                    !!
!!   nambdy        Unstructured open boundaries                         (default: OFF)
!!   nambdy_dta    Unstructured open boundaries - external data         (see  nambdy)
!!======================================================================
!
!-----------------------------------------------------------------------
&nambdy        !  unstructured open boundaries                          (default: OFF)
!-----------------------------------------------------------------------
   ln_bdy         = .false.    !  Use unstructured open boundaries
/
!!-----------------------------------------------------------------------
&nameos        !   ocean Equation Of Seawater                           (default: NO selection)
!-----------------------------------------------------------------------
   ln_eos80    = .true.          !  = Use EOS80
/
!!
!-----------------------------------------------------------------------
&nammpp        !   Massively Parallel Processing
!-----------------------------------------------------------------------
   ln_listonly =  .false.  !  do nothing else than listing the best domain decompositions (with land domains suppression)
   !                       !  if T: the largest number of cores tested is defined by max(mppsize, jpni*jpnj)
   ln_nnogather =  .false.
!!   jpni        =   2       !  number of processors following i (set automatically if < 1), see also ln_listonly = T
!!   jpnj        =   2       !  number of processors following j (set automatically if < 1), see also ln_listonly = T
   nn_hls      =   3            !  halo width (applies to both rows and columns)
   nn_comm     =   1            !  comm choice
/
!-----------------------------------------------------------------------
&namctl        !   Control prints                                       (default: OFF)
!-----------------------------------------------------------------------
   ln_timing   = .true.          !  timing by routine write out in timing.output file
/
