!!>>>>>>>>>>>>>>>>>>>>>>>>>>>>>>>>>>>>>>>>>>>>>>>>>>>>>>>>>>>>>>>>>>>>>>
!! NEMO/OCE  Configuration namelist : overwrite default values defined in SHARED/namelist_ref
!!
!!    EGL12 (East-GreenLand 1/12 degree!) OCE coupled to Nanuq
!!
!!>>>>>>>>>>>>>>>>>>>>>>>>>>>>>>>>>>>>>>>>>>>>>>>>>>>>>>>>>>>>>>>>>>>>>>
!! NEMO/OCE  :  1 - Domain & run manager (namrun, namcfg, namdom, namtsd, namcrs, namc1d, namc1d_uvd)
!! namelists    2 - Surface boundary (namsbc, namsbc_flx, namsbc_blk, namsbc_cpl,
!!                                    namsbc_sas, namtra_qsr, namsbc_rnf,
!!                                    namisf, namsbc_apr,
!!                                    namsbc_ssr, namsbc_wave, namberg)
!!              3 - lateral boundary (namlbc, namagrif, nambdy, nambdy_tide)
!!              4 - top/bot boundary (namdrg, namdrg_top, namdrg_bot, nambbc, nambbl)
!!              5 - Tracer           (nameos, namtra_adv, namtra_ldf, namtra_eiv, namtra_dmp)
!!              6 - dynamics         (namdyn_adv, namdyn_vor, namdyn_hpg, namdyn_spg, namdyn_ldf)
!!              7 - Vertical physics (namzdf, namzdf_ric, namzdf_tke, namzdf_gls, namzdf_iwm)
!!              8 - diagnostics      (namnc4, namtrd, namspr, namflo, namhsb)
!!              9 - Obs & Assim      (namobs, nam_asminc)
!!             10 - miscellaneous    (nammpp, namctl, namsto)
!!>>>>>>>>>>>>>>>>>>>>>>>>>>>>>>>>>>>>>>>>>>>>>>>>>>>>>>>>>>>>>>>>>>>>>>

!!======================================================================
!!              ***  Domain & Run management namelists  ***           !!
!!                                                                    !!
!!   namrun       parameters of the run
!!   namdom       space and time domain
!!   namcfg       parameters of the configuration                       (default: user defined GYRE)
!!   namwad       Wetting and drying                                    (default: OFF)
!!   namtsd       data: temperature & salinity                          (default: OFF)
!!   namcrs       coarsened grid (for outputs and/or TOP)               (ln_crs =T)
!!   namc1d       1D configuration options                              (ln_c1d =T)
!!   namc1d_dyndmp 1D newtonian damping applied on currents             (ln_c1d =T)
!!   namc1d_uvd   1D data (currents)                                    (ln_c1d =T)
!!======================================================================
!
!-----------------------------------------------------------------------
&namrun        !   parameters of the run
!-----------------------------------------------------------------------
   cn_exp      =  'EGL12-CPL00' !  experience name
   nn_it000    =    1   !  first time step
   nn_itend    =    4464   !  last  time step (std 5840)
   nn_date0    =    19970101   !  date at nit_0000 (format yyyymmdd) used if ln_rstart=F or (ln_rstart=T and nn_rstctl=0 or 1)
   nn_leapy    =       1   !  Leap year calendar (1) or not (0)
   ln_rstart   =  .false.   !  start from rest (F) or from a restart file (T)
      ln_1st_euler = .false.  !  =T force a start with forward time step (ln_rstart=T)
      nn_rstctl   = 2      !  restart control ==> activated only if ln_rstart=T
      !                          !    = 0 nn_date0 read in namelist ; nn_it000 : read in namelist
      !                          !    = 1 nn_date0 read in namelist ; nn_it000 : check consistancy between namelist and restart
      !                          !    = 2 nn_date0 read in restart  ; nn_it000 : check consistancy between namelist and restart
      cn_ocerst_in    = ''    !  suffix of ocean restart name (input)
      cn_ocerst_indir = ''   !  directory from which to read input ocean restarts
      cn_ocerst_out   = 'restart_oce'       !  suffix of ocean restart name (output)
      cn_ocerst_outdir = '.' !  directory in which to write output ocean restarts
   !!
   nn_istate   =  0 !  output the initial state (1) or not (0)
   ln_rst_list = .false.   !  output restarts at list of times using nn_stocklist (T) or at set frequency with nn_stock (F)
   nn_stock    = 4464  !  frequency of creation of a restart file (modulo referenced to 1)
   nn_write    = 4464   !  frequency of write in the output file   (modulo referenced to nn_it000)
   ln_mskland  = .false.   !  mask land points in NetCDF outputs
   ln_clobber  = .true.    !  clobber (overwrite) an existing file
/
!-----------------------------------------------------------------------
&namdom        !   time and space domain
!-----------------------------------------------------------------------
   rn_Dt      = 600.      !  time step for the dynamics and tracer
   ln_meshmask = .false.   !  =T create a mesh file
/
!-----------------------------------------------------------------------
&namcfg        !   parameters of the configuration                      (default: use namusr_def in namelist_cfg)
!-----------------------------------------------------------------------
   ln_read_cfg = .true.    !  (=T) read the domain configuration file
      cn_domcfg = 'domain_cfg_EGL12_L75_4.2.2'  ! domain configuration filename
/
!-----------------------------------------------------------------------
&namtsd        !    Temperature & Salinity Data  (init/dmp)             (default: OFF)
!-----------------------------------------------------------------------
   !                       ! =T  read T-S fields for:
   ln_tsd_init = .true.    !  ocean initialisation
   ln_tsd_dmp  = .false.         !  T-S restoring   (see namtra_dmp)

   cn_dir      = './'      !  root directory for the T-S data location
   !___________!__________________!___________________!_____________!_____________!________!___________!__________________!__________!_______________!
   !           !  file name       ! frequency (hours) !  variable   ! time interp.!  clim  ! 'yearly'/ ! weights filename ! rotation ! land/sea mask !
   !           !                  !  (if <0  months)  !    name     !   (logical) !  (T/F) ! 'monthly' !                  ! pairing  !    filename   !
   sn_tem = 'votemper_GLORYS2V4-EGL12_L75_19970101',    -12. ,'votemper',   .FALSE.   , .TRUE. , 'yearly'  ,    ''    ,    ''    ,    ''
   sn_sal = 'vosaline_GLORYS2V4-EGL12_L75_19970101',    -12. ,'vosaline',   .FALSE.   , .TRUE. , 'yearly'  ,    ''    ,    ''    ,    ''
/

!!======================================================================
!!            ***  Surface Boundary Condition namelists  ***          !!
!!                                                                    !!
!!   namsbc          surface boundary condition manager                 (default: NO selection)
!!   namsbc_flx      flux               formulation                     (ln_flx     =T)
!!   namsbc_blk      Bulk formulae formulation                          (ln_blk     =T)
!!   namsbc_cpl      CouPLed            formulation                     ("key_oasis3" )
!!   namsbc_sas      Stand-Alone Surface module                         (SAS_SRC  only)
!!   namsbc_iif      Ice-IF: use observed ice cover                     (nn_ice = 1   )
!!   namtra_qsr      penetrative solar radiation                        (ln_traqsr  =T)
!!   namsbc_ssr      sea surface restoring term (for T and/or S)        (ln_ssr     =T)
!!   namsbc_rnf      river runoffs                                      (ln_rnf     =T)
!!   namsbc_apr      Atmospheric Pressure                               (ln_apr_dyn =T)
!!   namsbc_wave     external fields from wave model                    (ln_wave    =T)
!!   namberg         iceberg floats                                     (ln_icebergs=T)
!!   namsbc_fwb      freshwater-budget adjustment                       (nn_fwb > 0)
!!======================================================================
!
!-----------------------------------------------------------------------
&namsbc        !   Surface Boundary Condition manager                   (default: NO selection)
!-----------------------------------------------------------------------
   nn_fsbc     = 1    !  frequency of SBC module call
      !                    !  (control sea-ice & iceberg model call)
                     ! Type of air-sea fluxes
   ln_blk      = .false. !#lolo  !  Bulk formulation                          (T => fill namsbc_blk )
                     ! Sea-ice :
   nn_components = 1 !#lolo!  configuration of the opa-sas OASIS coupling
      !                    !  =0 no opa-sas OASIS coupling: default single executable config.
      !                    !  =1 opa-sas OASIS coupling: multi executable config., OCE component
      !                    !  =2 opa-sas OASIS coupling: multi executable config., SAS component
                     ! Sea-ice :
   nn_ice      = 0         !#lolo:cpl => we don't use SI3 or CICE
                     ! Misc. options of sbc : 
   ln_traqsr   = .true.    !  Light penetration in the ocean            (T => fill namtra_qsr)
   ln_dm2dc    = .false.   !  daily mean to diurnal cycle on short wave
   ln_ssr      = .false.   !  Sea Surface Restoring on T and/or S       (T => fill namsbc_ssr)
   nn_fwb      = 0         !  FreshWater Budget: =0 unchecked
      !                    !     =1 global mean of e-p-r set to zero at each time step
      !                    !     =2 annual global mean of e-p-r set to zero
   ln_rnf      = .true.    !  runoffs                                   (T => fill namsbc_rnf)
   ln_apr_dyn  = .false.   !#lolo  Patm gradient added in ocean & ice Eqs.   (T => fill namsbc_apr )
   ln_wave     = .false.   !  Activate coupling with wave  (T => fill namsbc_wave)
   nn_lsm      = 0         !  =0 land/sea mask for input fields is not applied (keep empty land/sea mask filename field) ,
                           !  =1:n number of iterations of land/sea mask application for input fields (fill land/sea mask filename field)
/
!-----------------------------------------------------------------------
&namsbc_blk    !   namsbc_blk  generic Bulk formula          (ln_blk =T)
!-----------------------------------------------------------------------
!! WE ARE OPA! WE receive surface fluxes we don't compute them... #lolo:cpl
/
!-----------------------------------------------------------------------
&namsbc_cpl    !   coupled ocean/atmosphere model                       ("key_oasis3")
!-----------------------------------------------------------------------
!! OPA - oasis - SAS mode doesn't need this!!!
   sn_rcv_rnf    =       'none'                ,    'no'    ,     ''      ,         ''          ,   ''
/
!-----------------------------------------------------------------------
&namtra_qsr    !   penetrative solar radiation                          (ln_traqsr =T)
!-----------------------------------------------------------------------
   !                       ! type of penetration                        (default: NO selection)
   ln_qsr_rgb  = .true.       !  RGB light penetration (Red-Green-Blue)
   !
   nn_chldta   =      1       !  RGB : Chl data (=1) or cst value (=0)

   cn_dir      = './'      !  root directory for the chlorophyl data location
   !___________!_________________________!___________________!___________!_____________!________!___________!__________________!__________!_______________!
   !           !  file name              ! frequency (hours) ! variable  ! time interp.!  clim  ! 'yearly'/ ! weights filename ! rotation ! land/sea mask !
   !           !                         !  (if <0  months)  !   name    !   (logical) !  (T/F) ! 'monthly' !                  ! pairing  !    filename   !
   sn_chl      ='CHLA_ESACCI_BIOMER4V1R1_EGL12',    -1.      , 'CHLA'    ,   .true.    , .true. , 'yearly'  , ''               , ''       , ''
/
!-----------------------------------------------------------------------
&namsbc_ssr    !   surface boundary condition : sea surface restoring   (ln_ssr =T)
!-----------------------------------------------------------------------
/
!-----------------------------------------------------------------------
&namsbc_rnf    !   runoffs                                              (ln_rnf =T)
!-----------------------------------------------------------------------
   ln_rnf_mouth = .true.    !  specific treatment at rivers mouths
      rn_hrnf     =  15.e0    !  depth over which enhanced vertical mixing is used    (ln_rnf_mouth=T)
      rn_avt_rnf  =   2.e-3   !  value of the additional vertical mixing coef. [m2/s] (ln_rnf_mouth=T)
   rn_rfact    =   1.e0    !  multiplicative factor for runoff

   cn_dir      = './'      !  root directory for the runoff data location
   !___________!_________________________!___________________!___________!_____________!________!___________!__________________!__________!_______________!
   !           !  file name              ! frequency (hours) ! variable  ! time interp.!  clim  ! 'yearly'/ ! weights filename ! rotation ! land/sea mask !
   !           !                         !  (if <0  months)  !   name    !   (logical) !  (T/F) ! 'monthly' !                  ! pairing  !    filename   !
   sn_rnf      = 'runoff_v2.4_EGL12'  , -1.   , 'sorunoff',  .true.   , .true. , 'yearly'  , ''       , ''       , ''
   sn_cnf      = 'runoff_v2.4_EGL12'  ,  0.   , 'socoefr' ,  .false.  , .true. , 'yearly'  , ''       , ''       , ''
   sn_s_rnf    = 'runoffs'            , 24.   , 'rosaline',  .true.   , .true. , 'yearly'  , ''       , ''       , ''
   sn_t_rnf    = 'runoffs'            , 24.   , 'rotemper',  .true.   , .true. , 'yearly'  , ''       , ''       , ''
   sn_dep_rnf  = 'runoffs'            ,  0.   , 'rodepth' ,  .false.  , .true. , 'yearly'  , ''       , ''       , ''
/
!-----------------------------------------------------------------------
&namsbc_apr    !   Atmospheric pressure used as ocean forcing           (ln_apr_dyn =T)
!-----------------------------------------------------------------------
/
!-----------------------------------------------------------------------
&namisf       !  Top boundary layer (ISF)                               (default: OFF)
!-----------------------------------------------------------------------
/
!-----------------------------------------------------------------------
&namsbc_wave   ! External fields from wave model                        (ln_wave=T)
!-----------------------------------------------------------------------
/
!-----------------------------------------------------------------------
&namberg       !   iceberg parameters                                   (default: OFF)
!-----------------------------------------------------------------------
   ln_icebergs = .false.      ! activate iceberg floats (force =F with "key_agrif")
/
!-----------------------------------------------------------------------
&namsbc_fwb    !   freshwater-budget adjustment                         (nn_fwb > 0)
!-----------------------------------------------------------------------
/

!!======================================================================
!!               ***  Lateral boundary condition  ***                 !!
!!                                                                    !!
!!   namlbc        lateral momentum boundary condition                  (default: NO selection)
!!   namagrif      agrif nested grid   (read by child model only)       ("key_agrif")
!!   nam_tide      Tidal forcing                                        (default: OFF)
!!   nambdy        Unstructured open boundaries                         (default: OFF)
!!   nambdy_dta    Unstructured open boundaries - external data         (see  nambdy)
!!   nambdy_tide   tidal forcing at open boundaries                     (default: OFF)
!!======================================================================
!
!-----------------------------------------------------------------------
&namlbc        !   lateral momentum boundary condition                  (default: NO selection)
!-----------------------------------------------------------------------
   rn_shlat    =    2.     !  no slip #lolo very important for BBM to match that of sea-ice (rn_ishlat)
/
!-----------------------------------------------------------------------
&nam_tide      !   tide parameters                                      (default: OFF)
!-----------------------------------------------------------------------
/
!-----------------------------------------------------------------------
&nambdy        !  unstructured open boundaries                          (default: OFF)
!-----------------------------------------------------------------------
   ln_bdy         = .true. !lolo   !  Use unstructured open boundaries
   nb_bdy         = 1         !  number of open boundary sets
   ln_coords_file = .true.    !  =T : read bdy coordinates from file
      cn_coords_file = 'coordinates_bdy_EGL12.nc' !  bdy coordinates files
   ln_mask_file   = .false.   !  =T : read mask from file
      cn_mask_file = ''        !  name of mask file (if ln_mask_file=.TRUE.)
   !
   cn_dyn2d       = 'flather' !
   nn_dyn2d_dta   =  1        !  = 0, bdy data are equal to the initial state
      !                       !  = 1, bdy data are read in 'bdydata   .nc' files
      !                       !  = 2, use tidal harmonic forcing data from files
      !                       !  = 3, use external data AND tidal harmonic forcing
   cn_dyn3d      =  'frs'     !
   nn_dyn3d_dta  =  1         !  = 0, bdy data are equal to the initial state
   !                          !  = 1, bdy data are read in 'bdydata   .nc' files
   cn_tra        =  'frs'     !
   nn_tra_dta    =  1         !  = 0, bdy data are equal to the initial state
   !                          !  = 1, bdy data are read in 'bdydata   .nc' files
   !
   nn_rimwidth   = 10         !  width of the relaxation zone
/
!-----------------------------------------------------------------------
&nambdy_dta    !  open boundaries - external data                       (see nam_bdy)
!-----------------------------------------------------------------------
   ln_full_vel = .true.      !  T if [uv]3d are "full" velocities and not only its baroclinic components
   !                         !  in this case, baroclinic and barotropic velocities will be recomputed -> [uv]2d not needed
   !
   cn_dir      = './'    !  root directory for the BDY data location
   !___________!_________________________!___________________!___________!_____________!________!___________!__________________!__________!_______________!
   !           !  file name              ! frequency (hours) ! variable  ! time interp.!  clim  ! 'yearly'/ ! weights filename ! rotation ! land/sea mask !
   !           !                         !  (if <0  months)  !   name    !   (logical) !  (T/F) ! 'monthly' !                  ! pairing  !    filename   !
   bn_ssh      = 'sossheig_bdyT_GLORYS2V4-EGL12',       -1     , 'sossheig',     .true. , .false., 'yearly'  ,    ''            ,   ''     ,     ''
   bn_u3d      = 'vozocrtx_bdyU_GLORYS2V4-EGL12_L75', -1     , 'vozocrtx',     .true. , .false., 'yearly'  ,    ''            ,   ''     ,     ''
   bn_v3d      = 'vomecrty_bdyV_GLORYS2V4-EGL12_L75', -1     , 'vomecrty',     .true. , .false., 'yearly'  ,    ''            ,   ''     ,     ''
   bn_tem      = 'votemper_bdyT_GLORYS2V4-EGL12_L75', -1     , 'votemper',     .true. , .false., 'yearly'  ,    ''            ,   ''     ,     ''
   bn_sal      = 'vosaline_bdyT_GLORYS2V4-EGL12_L75', -1     , 'vosaline',     .true. , .false., 'yearly'  ,    ''            ,   ''     ,     ''
/
!-----------------------------------------------------------------------
&nambdy_tide   !  tidal forcing at open boundaries                      (default: OFF)
!-----------------------------------------------------------------------
/

!!======================================================================
!!                ***  Top/Bottom boundary condition  ***             !!
!!                                                                    !!
!!   namdrg        top/bottom drag coefficient                          (default: NO selection)
!!   namdrg_top    top    friction                                      (ln_drg_OFF=F & ln_isfcav=T)
!!   namdrg_bot    bottom friction                                      (ln_drg_OFF=F)
!!   nambbc        bottom temperature boundary condition                (default: OFF)
!!   nambbl        bottom boundary layer scheme                         (default: OFF)
!!======================================================================
!
!-----------------------------------------------------------------------
&namdrg        !   top/bottom drag coefficient                          (default: NO selection)
!-----------------------------------------------------------------------
   ln_drg_OFF  = .false.   !  free-slip       : Cd = 0                  (F => fill namdrg_bot
   ln_lin      = .false.   !      linear  drag: Cd = Cd0 Uc0                   &   namdrg_top)
   ln_non_lin  = .true.    !  non-linear  drag: Cd = Cd0 |U|
   ln_loglayer = .false.   !  logarithmic drag: Cd = vkarmn/log(z/z0) |U|
   !
   ln_drgimp   = .true.    !  implicit top/bottom friction flag
      ln_drgice_imp = .true. ! implicit ice-ocean drag
/
!-----------------------------------------------------------------------
&namdrg_top    !   TOP friction                                         (ln_drg_OFF =F & ln_isfcav=T)
!-----------------------------------------------------------------------
   rn_Cd0      =  2.5e-3  !  drag coefficient [-]
   rn_Uc0      =  0.4      !  ref. velocity [m/s] (linear drag=Cd0*Uc0)
   rn_Cdmax    =  0.1      !  drag value maximum [-] (logarithmic drag)
   rn_ke0      =  0.0      !  background kinetic energy  [m2/s2] (non-linear cases)
   rn_z0       =  3.0e-3   !  roughness [m] (ln_loglayer=T)
   ln_boost    = .false.   !  =T regional boost of Cd0 ; =F constant
      rn_boost =  50.         !  local boost factor  [-]
/
!-----------------------------------------------------------------------
&namdrg_bot    !   BOTTOM friction                                      (ln_drg_OFF =F)
!-----------------------------------------------------------------------
   rn_Cd0      =  2.5e-3  !  drag coefficient [-]
   rn_Uc0      =  0.4      !  ref. velocity [m/s] (linear drag=Cd0*Uc0)
   rn_Cdmax    =  0.1      !  drag value maximum [-] (logarithmic drag)
   rn_ke0      =  0.0      !  background kinetic energy  [m2/s2] (non-linear cases)
   rn_z0       =  3.e-3    !  roughness [m] (ln_loglayer=T)
   ln_boost    = .false.   !  =T regional boost of Cd0 ; =F constant
      rn_boost =  50.         !  local boost factor  [-]
/
!-----------------------------------------------------------------------
&nambbc        !   bottom temperature boundary condition                (default: OFF)
!-----------------------------------------------------------------------
   ln_trabbc   = .false.   !  Apply a geothermal heating at the ocean bottom
/
!-----------------------------------------------------------------------
&nambbl        !   bottom boundary layer scheme                         (default: OFF)
!-----------------------------------------------------------------------
   ln_trabbl   = .false.   !  Bottom Boundary Layer parameterisation flag
      nn_bbl_ldf  =  1        !  diffusive bbl (=1)   or not (=0)
      nn_bbl_adv  =  0        !  advective bbl (=1/2) or not (=0)
      rn_ahtbbl   =  1000.    !  lateral mixing coefficient in the bbl  [m2/s]
      rn_gambbl   =  10.      !  advective bbl coefficient                 [s]
/

!!======================================================================
!!                        Tracer (T-S) namelists                      !!
!!                                                                    !!
!!   nameos        equation of state                                    (default: NO selection)
!!   namtra_adv    advection scheme                                     (default: NO selection)
!!   namtra_ldf    lateral diffusion scheme                             (default: NO selection)
!!   namtra_mle    mixed layer eddy param. (Fox-Kemper param.)          (default: OFF)
!!   namtra_eiv    eddy induced velocity param.                         (default: OFF)
!!   namtra_dmp    T & S newtonian damping                              (default: OFF)
!!======================================================================
!
!-----------------------------------------------------------------------
&nameos        !   ocean Equation Of Seawater                           (default: NO selection)
!-----------------------------------------------------------------------
   ln_eos80    = .true.          !  = Use EOS80
/
!-----------------------------------------------------------------------
&namtra_adv    !   advection scheme for tracer                          (default: NO selection)
!-----------------------------------------------------------------------
   ln_traadv_fct = .true.     !  FCT scheme
      nn_fct_h   =  4               !  =2/4, horizontal 2nd / 4th order #aa same as eORCA12
      nn_fct_v   =  4               !  =2/4, vertical   2nd / COMPACT 4th order #aa same as eORCA12
/
!-----------------------------------------------------------------------
&namtra_ldf    !   lateral diffusion scheme for tracers                 (default: NO selection)
!-----------------------------------------------------------------------
   !                       !  Operator type:
   ln_traldf_OFF   = .false.   !  No explicit diffusion
   ln_traldf_lap   = .true.    !    laplacian operator
   ln_traldf_iso   = .true.    !  iso-neutral (Standard operator)
   ln_traldf_msc   = .true.    !  Method of Stabilizing Correction      (both operators)
   !                       !  Coefficients:
   nn_aht_ijk_t    = 20        !  space/time variation of eddy coef
      !                             !   = 20     aht = 1/2  Ud. max(e1,e2)
      rn_Ud        = 0.02            !#lolo  lateral diffusive velocity [m/s] (nn_aht_ijk_t= 0, 10, 20, 30)
/
!-----------------------------------------------------------------------
&namtra_mle    !   mixed layer eddy parametrisation (Fox-Kemper)       (default: OFF)
!-----------------------------------------------------------------------
   ln_mle      = .true.   ! (T) use the Mixed Layer Eddy (MLE) parameterisation
/
!-----------------------------------------------------------------------
&namtra_eiv    !   eddy induced velocity param.                         (default: OFF)
!-----------------------------------------------------------------------
   ln_ldfeiv   = .false.    ! use eddy induced velocity parameterization
/
!-----------------------------------------------------------------------
&namtra_dmp    !   tracer: T & S newtonian damping                      (default: OFF)
!-----------------------------------------------------------------------
   ln_tradmp   =  .false.  !  add a damping term (using resto.nc coef.)
/

!!======================================================================
!!                      ***  Dynamics namelists  ***                  !!
!!                                                                    !!
!!   nam_vvl       vertical coordinate options                          (default: z-star)
!!   namdyn_adv    formulation of the momentum advection                (default: NO selection)
!!   namdyn_vor    advection scheme                                     (default: NO selection)
!!   namdyn_hpg    hydrostatic pressure gradient                        (default: NO selection)
!!   namdyn_spg    surface pressure gradient                            (default: NO selection)
!!   namdyn_ldf    lateral diffusion scheme                             (default: NO selection)
!!   namdta_dyn    offline TOP: dynamics read in files                  (OFF_SRC only)
!!======================================================================
!
!-----------------------------------------------------------------------
&nam_vvl       !   vertical coordinate options                          (default: z-star)
!-----------------------------------------------------------------------
   ln_vvl_zstar  = .true.           !  z-star vertical coordinate
/
!-----------------------------------------------------------------------
&namdyn_adv    !   formulation of the momentum advection                (default: NO selection)
!-----------------------------------------------------------------------
   ln_dynadv_vec = .false. !#aa same as eORCA12 vector form - 2nd centered scheme
     nn_dynkeg     = 1        !#lolo grad(KE) scheme: =0   C2  ;  =1   Hollingsworth correction
   ln_dynadv_cen2 = .false. !  flux form - 2nd order centered scheme
   ln_dynadv_ubs = .true. !#lolo! same as eorca12  flux form - 3rd order UBS      scheme
/
!-----------------------------------------------------------------------
&namdyn_vor    !   Vorticity / Coriolis scheme                          (default: NO selection)
!-----------------------------------------------------------------------
   ln_dynvor_een = .true.  !  energy & enstrophy scheme
/
!-----------------------------------------------------------------------
&namdyn_hpg    !   Hydrostatic pressure gradient option                 (default: NO selection)
!-----------------------------------------------------------------------
   ln_hpg_sco  = .true.   !  s-coordinate (standard jacobian formulation)
/
!-----------------------------------------------------------------------
&namdyn_spg    !   surface pressure gradient                            (default: NO selection)
!-----------------------------------------------------------------------
   ln_dynspg_ts  = .true.  !  split-explicit free surface
      ln_bt_auto    = .true.     ! Number of sub-step defined from:
         rn_bt_cmax   =  0.5     ! =T : the Maximum Courant Number allowed
/
!-----------------------------------------------------------------------
&namdyn_ldf    !   lateral diffusion on momentum                        (default: NO selection)