!!>>>>>>>>>>>>>>>>>>>>>>>>>>>>>>>>>>>>>>>>>>>>>>>>>>>>>>>>>>>>>>>>>>>>>>
!! NEMO/OCE  Configuration namelist : overwrite default values defined in SHARED/namelist_ref
!!>>>>>>>>>>>>>>>>>>>>>>>>>>>>>>>>>>>>>>>>>>>>>>>>>>>>>>>>>>>>>>>>>>>>>>
!!    EGL12 (East-GreenLand 1/12 of a degree!) standalone
!!======================================================================
!
!-----------------------------------------------------------------------
&namrun        !   parameters of the run
!-----------------------------------------------------------------------
   cn_exp      =  'EGL12-00' !  experience name
   nn_it000    =    1   !  first time step
   nn_itend    =    4464   !  last  time step (std 5840)
   nn_date0    =    19970101   !  date at nit_0000 (format yyyymmdd) used if ln_rstart=F or (ln_rstart=T and nn_rstctl=0 or 1)
   nn_leapy    =       1   !  Leap year calendar (1) or not (0)
   ln_rstart   =  .false.   !  start from rest (F) or from a restart file (T)
      nn_rstctl   = 2      !  restart control ==> activated only if ln_rstart=T
      !                          !    = 0 nn_date0 read in namelist ; nn_it000 : read in namelist
      !                          !    = 1 nn_date0 read in namelist ; nn_it000 : check consistancy between namelist and restart
      !                          !    = 2 nn_date0 read in restart  ; nn_it000 : check consistancy between namelist and restart
   nn_istate   =       0   !  output the initial state (1) or not (0)
   ln_rst_list = .false.   !  output restarts at list of times using nn_stocklist (T) or at set frequency with nn_stock (F)
   nn_stock    = 4464  !  frequency of creation of a restart file (modulo referenced to 1)
   nn_write    = 4464   !  frequency of write in the output file   (modulo referenced to nn_it000)
   ln_mskland  = .false.   !  mask land points in NetCDF outputs
   ln_clobber  = .true.    !  clobber (overwrite) an existing file
/
!-----------------------------------------------------------------------
&namdom        !   time and space domain
!-----------------------------------------------------------------------
   rn_Dt      = 600.      !  time step for the dynamics and tracer
   ln_meshmask = .false.   !  =T create a mesh file
/
!-----------------------------------------------------------------------
&namcfg        !   parameters of the configuration                      (default: use namusr_def in namelist_cfg)
!-----------------------------------------------------------------------
   ln_read_cfg = .true.    !  (=T) read the domain configuration file
      cn_domcfg = 'domain_cfg_EGL12_L75_4.2.2'  ! domain configuration filename
/
!!
!!
!!======================================================================
!!  ***  Ocean Surface State namelists  ***   !!
!!                                                                    !!
!!   namoss          Ocean Surface State manager   (default: NO selection)
!!   !!!namoss_cpl      CouPLed            formulation                     ("key_oasis3" )
!!   namoss_ssx      prescribed surface state of the ocean when no coupling
!!======================================================================
!
!-----------------------------------------------------------------------
&namoss        !   Surface Ocean State & Ice-Ocean interface manager                   (default: NO selection)
!-----------------------------------------------------------------------
   rn_Cd_io      = 5.2e-03 !  ice-ocean drag coefficient (-)
   ln_drgice_imp = .true.  !  implicit ice-ocean drag
      !
   nn_foss     = 1         !  frequency of OSS module call
      !                    !  (control sea-ice & iceberg model call)
      !              ! Type of coupling (Ice/Ocean) :
   ln_prs_oce  = .true.    !  uses a prescribed surface state of the ocean => standalone mode
   ln_cpl_oce  = .false.   !  ocean coupled   formulation          ( requires key_oasis3 )
      !
   ln_ice_embd = .false.   !  =T embedded sea-ice (pressure + mass and salt exchanges)
      !                    !  =F levitating ice (no pressure, mass and salt exchanges)
/
!!
!-----------------------------------------------------------------------
&namoss_ssx    !   Surface ocean state (`ln_prs_oce=T` => prescibed sate | `ln_cpl_oce=T`=>initial state)
!-----------------------------------------------------------------------
   ln_ssxread   = .true.      !  =T Read in file ;  =F set all to 0. (see ossssm)
      ln_3d_uve   = .false.   !  specify whether we are supplying a 3D u,v and e3 field
      ln_read_e3t = .false.   !  specify whether we must read `e3t` or not
         rn_e3t_0 = 1.        !  if `ln_read_e3t=F` prescribed thickness of 1st ocean level to impose (m)
      ln_read_frq = .false.   !  specify whether we must read `frq` or not
         rn_frq_0 = 0.65      !  if `ln_read_frq=F` prescr. solar flux penetr. through 1st ocean level
   !
   ! Relevant if `ln_prs_oce=T`:
   ln_ssv_T    = .false. !LOLO? !  prescribed sea surface velocities are provided on T grid points (default is U,V!)
   !
   ln_slab_sst = .true.       ! if `ln_slab_sst=T`: correct the prescribed SST based on a slab model approach
         rn_mld_0 = 10.       ! global value of mixed layer depth to fall back on when `ln_slab_sst=T` & `sn_mld='NOT USED'`
         rn_ncs_sst = 0.5     ! nudging coefficient for SLAB bulk SST correction (the higher, the closer to the prescribed SST)
   !
   cn_dir      = './'      !  root directory for the ocean data location
   !___________!_________________________!___________________!___________!_____________!________!___________!__________________!__________!_______________!
   !           !  file name              ! frequency (hours) ! variable  ! time interp.!  clim  ! 'yearly'/ ! weights filename ! rotation ! land/sea mask !
   !           !                         !  (if <0  months)  !   name    !   (logical) !  (T/F) ! 'monthly' !                  ! pairing  !    filename   !
   sn_usp = 'EGL12_SSX_6h' ,   6., 'uos'     ,   .true.    , .false., 'yearly'  ,    ''            ,    ''    ,    ''
   sn_vsp = 'EGL12_SSX_6h' ,   6., 'vos'     ,   .true.    , .false., 'yearly'  ,    ''            ,    ''    ,    ''
   sn_tem = 'EGL12_SSX_6h' ,   6., 'tos'     ,   .true.    , .false., 'yearly'  ,    ''            ,    ''    ,    ''
   sn_sal = 'EGL12_SSX_6h' ,   6., 'sos'     ,   .true.    , .false., 'yearly'  ,    ''            ,    ''    ,    ''
   sn_ssh = 'EGL12_SSX_6h' ,   6., 'zos'     ,   .true.    , .false., 'yearly'  ,    ''            ,    ''    ,    ''
   sn_e3t = 'EGL12_SSX_6h' ,   6., 'e3t_m'   ,   .true.    , .false., 'yearly'  ,    ''            ,    ''    ,    ''
   sn_frq = 'EGL12_SSX_6h' ,   6., 'frq_m'   ,   .true.    , .false., 'yearly'  ,    ''            ,    ''    ,    ''
/
!!
!!
!!======================================================================
!!  ***  Surface Boundary Conditions (ice & ocean) namelists  ***     !!
!!                                                                    !!
!!   namsbc          surface boundary condition (ice & ocean) manager   (default: NO selection)
!!   namsbc_flx      flux               formulation                     (ln_flx     =T)
!!   namsbc_blk      Bulk formulae formulation                          (ln_blk     =T)
!!   namsbc_cpl      CouPLed            formulation                     ("key_oasis3" )
!!======================================================================
!
!-----------------------------------------------------------------------
&namsbc        !   Surface Boundary Condition manager                   (default: NO selection)
!-----------------------------------------------------------------------
   nn_fsbc     = 1         !  frequency of SBC module call
   ln_blk      = .true.    !  Bulk formulation                          (T => fill namsbc_blk )
/
!-----------------------------------------------------------------------
&namsbc_blk    !   namsbc_blk  generic Bulk formula          (ln_blk =T)
!-----------------------------------------------------------------------
   !                    !  bulk algorithm :
   ln_NCAR      = .false.    ! "NCAR"      algorithm   (Large and Yeager 2008)
   ln_COARE_3p0 = .false.    ! "COARE 3.0" algorithm   (Fairall et al. 2003)
   ln_ECMWF     = .true.     ! "ECMWF"     algorithm   (IFS cycle 45r1)
      rn_zqt       =  2.     !  Air temperature & humidity reference height (m)
      rn_zu        = 10.     !  Wind vector reference height (m)
      nn_iter_algo = 5       !  Number of iterations in bulk param. algo ("stable ABL + weak wind" requires more)
      ln_skin_cs   = .false. !  use the cool-skin parameterization  => use at least nn_iter_algo > 10
      ln_skin_wl   = .false. !  use the warm-layer parameterization => use at least nn_iter_algo > 10
   !
   ln_humi_sph = .false. !  humidity "sn_humi" is specific humidity  [kg/kg]
   ln_humi_dpt = .true.  !  humidity "sn_humi" is dew-point temperature [K]
   ln_humi_rlh = .false. !  humidity "sn_humi" is relative humidity     [%]
   ln_tair_pot = .false. !  air temperature read in "sn_tair" is already POTENTIAL TEMPERATURE, NOT ABSOLUTE (ECMWF => ln_tair_pot=.false.)
   !!
   !! Bulk transfer coefficients over sea-ice:
   ln_Cx_ice_cst = .true.     ! use constant ice-air bulk transfer coefficients (value given below)
      rn_Cd_i  = 1.6e-3       ! sea-ice drag coefficient
      rn_Ce_i  = 1.4e-3       !    "    sublimation coefficient
      rn_Ch_i  = 1.4e-3       !    "    sensible heat flux coefficient
   ln_Cx_ice_AN05  = .false.  !  (Andreas et al. 2005)
   ln_Cx_ice_LU12  = .false.  !  (Lupkes et al. 2012)
   ln_Cx_ice_LG15  = .false.  !  (Lupkes & Gryanik 2015)
   !
   cn_dir      = './' !  root directory for the bulk data location
   !___________!____________!___________!__________!_____________!________!___________!_____________________________________________________________!__________!_______________!
   !           !  file name ! freq. (h) ! variable ! time interp.!  clim  ! 'yearly'/ !       weights filename                                      ! rotation ! land/sea mask !
   !           !            !           !   name   !   (logical) !  (T/F) ! 'monthly' !                                                             ! pairing  !    filename   !
   sn_wndi = 'ERA5_u10',      1.,  'u10'    ,    .true.   , .false. , 'yearly' , 'weight_bicubic_ERA5_Arctic-box_1440x264-EGL12.nc'  , 'Uwnd'   , ''
   sn_wndj = 'ERA5_v10',      1.,  'v10'    ,    .true.   , .false. , 'yearly' , 'weight_bicubic_ERA5_Arctic-box_1440x264-EGL12.nc'  , 'Vwnd'   , ''
   sn_qsr  = 'ERA5_msdwswrf', 1., 'msdwswrf',    .false.  , .false. , 'yearly' , 'weight_bilinear_ERA5_Arctic-box_1440x264-EGL12.nc' , ''       , ''
   sn_qlw  = 'ERA5_msdwlwrf', 1., 'msdwlwrf',    .false.  , .false. , 'yearly' , 'weight_bilinear_ERA5_Arctic-box_1440x264-EGL12.nc' , ''       , ''
   sn_tair = 'ERA5_t2m',      1.,  't2m'    ,    .true.   , .false. , 'yearly' , 'weight_bilinear_ERA5_Arctic-box_1440x264-EGL12.nc' , ''       , ''
   sn_humi = 'ERA5_d2m',      1.,  'd2m'    ,    .true.   , .false. , 'yearly' , 'weight_bilinear_ERA5_Arctic-box_1440x264-EGL12.nc' , ''       , ''
   sn_prec = 'ERA5_mtpr',     1.,  'mtpr'   ,    .false.  , .false. , 'yearly' , 'weight_bilinear_ERA5_Arctic-box_1440x264-EGL12.nc' , ''       , ''
   sn_snow = 'ERA5_msr',      1.,  'msr'    ,    .false.  , .false. , 'yearly' , 'weight_bilinear_ERA5_Arctic-box_1440x264-EGL12.nc' , ''       , ''
   sn_slp  = 'ERA5_msl',      1.,  'msl'    ,    .true.   , .false. , 'yearly' , 'weight_bilinear_ERA5_Arctic-box_1440x264-EGL12.nc' , ''       , ''
/
!!
!!======================================================================
!!               ***  Lateral boundary condition  ***                 !!
!!                                                                    !!
!!   nambdy        Unstructured open boundaries                         (default: OFF)
!!   nambdy_dta    Unstructured open boundaries - external data         (see  nambdy)
!!======================================================================
!
!-----------------------------------------------------------------------
&nambdy        !  unstructured open boundaries                          (default: OFF)
!-----------------------------------------------------------------------
   ln_bdy         = .true.    !  Use unstructured open boundaries
   nb_bdy         = 1         !  number of open boundary sets
   ln_coords_file = .true.    !  =T : read bdy coordinates from file
      cn_coords_file = 'coordinates_bdy_EGL12.nc' !  bdy coordinates files
   ln_mask_file   = .false.   !  =T : read mask from file
      cn_mask_file = ''        !  name of mask file (if ln_mask_file=.TRUE.)
   !
   cn_ice        =  'frs'     !
   nn_ice_dta    =  1         !  = 0, bdy data are equal to the initial state
   !                          !  = 1, bdy data are read in 'bdydata   .nc' files
   cn_dmg        =  'neumann' !
   nn_dmg_dta    =  1         !  = 0, bdy data are equal to the initial state
   !                          !  = 1, bdy data are read in 'bdydata   .nc' files
   !
   nn_rimwidth   = 10         !  width of the relaxation zone
/
!-----------------------------------------------------------------------
&nambdy_dta    !  open boundaries - external data                       (see nam_bdy)
!-----------------------------------------------------------------------
   cn_dir      = './'    !  root directory for the BDY data location
   !___________!_________________________!___________________!___________!_____________!________!___________!__________________!__________!_______________!
   !           !  file name              ! frequency (hours) ! variable  ! time interp.!  clim  ! 'yearly'/ ! weights filename ! rotation ! land/sea mask !
   !           !                         !  (if <0  months)  !   name    !   (logical) !  (T/F) ! 'monthly' !                  ! pairing  !    filename   !
   bn_a_i      = 'siconc_bdyT_NANUK12-CPL00-EGL12',    3.    , 'siconc'  ,     .true. , .false., 'yearly'  ,    ''            ,   ''     ,     ''
   bn_h_i      = 'sithic_bdyT_NANUK12-CPL00-EGL12',    3.    , 'sithic'  ,     .true. , .false., 'yearly'  ,    ''            ,   ''     ,     ''
   bn_h_s      = 'snthic_bdyT_NANUK12-CPL00-EGL12',    3.    , 'snthic' ,      .true. , .false., 'yearly'  ,    ''            ,   ''     ,     ''
   bn_dmg      = 'damage_bdyT_NANUK12-CPL00-EGL12',    3.    , 'damage'  ,     .true. , .false., 'yearly'  ,    ''            ,   ''     ,     ''   
/
!!-----------------------------------------------------------------------
&nameos        !   ocean Equation Of Seawater                           (default: NO selection)
!-----------------------------------------------------------------------
/
!
!-----------------------------------------------------------------------
&nammpp        !   Massively Parallel Processing
!-----------------------------------------------------------------------
   ln_listonly =  .false.  !  do nothing else than listing the best domain decompositions (with land domains suppression)
   !                       !  if T: the largest number of cores tested is defined by max(mppsize, jpni*jpnj)
   ln_nnogather =  .false.
!!   jpni        =   2       !  number of processors following i (set automatically if < 1), see also ln_listonly = T
!!   jpnj        =   2       !  number of processors following j (set automatically if < 1), see also ln_listonly = T
   nn_hls      =   3            !  halo width (applies to both rows and columns)
   nn_comm     =   1            !  comm choice
/
!-----------------------------------------------------------------------
&namctl        !   Control prints                                       (default: OFF)
!-----------------------------------------------------------------------
   ln_timing   = .true.          !  timing by routine write out in timing.output file
/
